Program Version,EnergyPlus, Version 9.6.0-4b123cf80f, YMD=2022.05.22 02:11,
   ************* Beginning Zone Sizing Calculations
   ** Warning ** Weather file location will be used rather than entered (IDF) Location object.
   **   ~~~   ** ..Location object=SITE 1
   **   ~~~   ** ..Weather File Location=Boston Logan IntL Arpt MA USA TMY3 WMO#=725090
   **   ~~~   ** ..due to location differences, Latitude difference=[42.37] degrees, Longitude difference=[71.02] degrees.
   **   ~~~   ** ..Time Zone difference=[5.0] hour(s), Elevation difference=[600.00] percent, [6.00] meters.
   ** Warning ** ProcessScheduleInput: Schedule:Constant="ALWAYS ON DISCRETE", Blank Schedule Type Limits Name input -- will not be validated.
   ** Warning ** ProcessScheduleInput: Schedule:Constant="ALWAYS OFF DISCRETE", Blank Schedule Type Limits Name input -- will not be validated.
   ** Warning ** ProcessScheduleInput: Schedule:Constant="ALWAYS ON CONTINUOUS", Blank Schedule Type Limits Name input -- will not be validated.
   ** Warning ** CheckUsedConstructions: There are 21 nominally unused constructions in input.
   **   ~~~   ** For explicit details on each unused construction, use Output:Diagnostics,DisplayExtraWarnings;
   ** Warning ** Temperature out of range [-100. to 200.] (PsyPsatFnTemp)
   **   ~~~   **  Routine=CalcPurchAirLoads, During Sizing, Environment=BOSTON LOGAN INTL ARPT ANN HUM_N 99.6% CONDNS DP=>MCDB, at Simulation time=01/21 24:00 - 24:10
   **   ~~~   **  Input Temperature=-3784.31
   ** Warning ** ManageSizing: For a plant sizing run, there must be at least 1 Sizing:Plant object input. SimulationControl Plant Sizing option ignored.
   ** Warning ** For zone=OFFICESHOEBOX_BDC533DE return air heat gain from lights will be applied to the zone air.
   **   ~~~   **   This zone has no return air or is served by an on/off HVAC system.
   ************* Testing Individual Branch Integrity
   ************* All Branches passed integrity testing
   ************* Testing Individual Supply Air Path Integrity
   ************* All Supply Air Paths passed integrity testing
   ************* Testing Individual Return Air Path Integrity
   ************* All Return Air Paths passed integrity testing
   ************* No node connection errors were found.
   ************* Beginning Simulation
   ** Warning ** The resource referenced by LifeCycleCost:UsePriceEscalation= "U.S. AVG  COMMERCIAL-ELECTRICITY" has no energy cost. 
   **   ~~~   ** ... It is likely that the wrong resource is used. The resource should match the meter used in Utility:Tariff.
   ** Warning ** The resource referenced by LifeCycleCost:UsePriceEscalation= "U.S. AVG  COMMERCIAL-DISTILLATE OIL" has no energy cost. 
   **   ~~~   ** ... It is likely that the wrong resource is used. The resource should match the meter used in Utility:Tariff.
   ** Warning ** The resource referenced by LifeCycleCost:UsePriceEscalation= "U.S. AVG  COMMERCIAL-RESIDUAL OIL" has no energy cost. 
   **   ~~~   ** ... It is likely that the wrong resource is used. The resource should match the meter used in Utility:Tariff.
   ** Warning ** The resource referenced by LifeCycleCost:UsePriceEscalation= "U.S. AVG  COMMERCIAL-NATURAL GAS" has no energy cost. 
   **   ~~~   ** ... It is likely that the wrong resource is used. The resource should match the meter used in Utility:Tariff.
   ** Warning ** The resource referenced by LifeCycleCost:UsePriceEscalation= "U.S. AVG  COMMERCIAL-COAL" has no energy cost. 
   **   ~~~   ** ... It is likely that the wrong resource is used. The resource should match the meter used in Utility:Tariff.
   ************* Simulation Error Summary *************
   ** Warning ** The following Report Variables were requested but not generated -- check.rdd file
   **   ~~~   ** Either the IDF did not contain these elements, the variable name is misspelled,
   **   ~~~   ** or the requested variable is an advanced output which requires Output : Diagnostics, DisplayAdvancedReportVariables;
   ************* Key=*, VarName=BASEBOARD ELECTRICITY ENERGY, Frequency=Hourly
   ************* Key=*, VarName=DISTRICT COOLING CHILLED WATER ENERGY, Frequency=Hourly
   ************* Key=*, VarName=DISTRICT HEATING HOT WATER ENERGY, Frequency=Hourly
   ************* Key=*, VarName=EVAPORATIVE COOLER ELECTRICITY ENERGY, Frequency=Hourly
   ************* Key=*, VarName=FAN ELECTRICITY ENERGY, Frequency=Hourly
   ************* Key=*, VarName=HEATING COIL ELECTRICITY ENERGY, Frequency=Hourly
   ************* Key=*, VarName=HEATING COIL NATURALGAS ENERGY, Frequency=Hourly
   ************* Key=*, VarName=HEATING COIL TOTAL HEATING ENERGY, Frequency=Hourly
   ************* Key=*, VarName=HOT_WATER_LOOP_CENTRAL_AIR_SOURCE_HEAT_PUMP ELECTRICITY CONSUMPTION, Frequency=Hourly
   ************* Key=*, VarName=HUMIDIFIER ELECTRICITY ENERGY, Frequency=Hourly
   ************* Key=*, VarName=PUMP ELECTRICITY ENERGY, Frequency=Hourly
   ************* Key=*, VarName=BOILER ELECTRICITY ENERGY, Frequency=Hourly
   ************* Key=*, VarName=VRF HEAT PUMP COOLING ELECTRICITY ENERGY, Frequency=Hourly
   ************* Key=*, VarName=VRF HEAT PUMP CRANKCASE HEATER ELECTRICITY ENERGY, Frequency=Hourly
   ************* Key=*, VarName=VRF HEAT PUMP DEFROST ELECTRICITY ENERGY, Frequency=Hourly
   ************* Key=*, VarName=VRF HEAT PUMP HEATING ELECTRICITY ENERGY, Frequency=Hourly
   ************* Key=*, VarName=WATER HEATER ELECTRICITY ENERGY, Frequency=Hourly
   ************* Key=*, VarName=WATER HEATER NATURALGAS ENERGY, Frequency=Hourly
   ************* Key=*, VarName=WATER USE EQUIPMENT HEATING ENERGY, Frequency=Hourly
   ************* Key=*, VarName=ZONE GAS EQUIPMENT NATURALGAS ENERGY, Frequency=Hourly
   ************* Key=*, VarName=BOILER NATURALGAS ENERGY, Frequency=Hourly
   ************* Key=*, VarName=ZONE OTHER EQUIPMENT LOST HEAT ENERGY, Frequency=Hourly
   ************* Key=*, VarName=ZONE OTHER EQUIPMENT TOTAL HEATING ENERGY, Frequency=Hourly
   ************* Key=*, VarName=ZONE VRF AIR TERMINAL COOLING ELECTRICITY ENERGY, Frequency=Hourly
   ************* Key=*, VarName=ZONE VRF AIR TERMINAL HEATING ELECTRICITY ENERGY, Frequency=Hourly
   ************* Key=*, VarName=ZONE VENTILATION FAN ELECTRICITY ENERGY, Frequency=Hourly
   ************* Key=*, VarName=CHILLER ELECTRICITY ENERGY, Frequency=Hourly
   ************* Key=*, VarName=CHILLER HEATER SYSTEM COOLING ELECTRICITY ENERGY, Frequency=Hourly
   ************* Key=*, VarName=CHILLER HEATER SYSTEM HEATING ELECTRICITY ENERGY, Frequency=Hourly
   ************* Key=*, VarName=COOLING COIL ELECTRICITY ENERGY, Frequency=Hourly
   ************* Key=*, VarName=COOLING COIL WATER HEATING ELECTRICITY ENERGY, Frequency=Hourly
   ************* Key=*, VarName=COOLING TOWER FAN ELECTRICITY ENERGY, Frequency=Hourly
   ************* There are 4 unused schedules in input.
   ************* There are 4 unused week schedules in input.
   ************* There are 29 unused day schedules in input.
   ************* Use Output:Diagnostics,DisplayUnusedSchedules; to see them.
   *************
   ************* ===== Recurring Error Summary =====
   ************* The following recurring error messages occurred.
   *************
   *************  ** Warning ** Temperature out of range [-100. to 200.] (PsyPsatFnTemp)
   *************  **   ~~~   **   This error occurred 5 total times;
   *************  **   ~~~   **   during Warmup 0 times;
   *************  **   ~~~   **   during Sizing 1 times.
   *************  **   ~~~   **   Max=-146.200745 C  Min=-3784.317627 C
   *************
   *************
   ************* ===== Final Error Summary =====
   ************* The following error categories occurred.  Consider correcting or noting.
   ************* Nominally Unused Constructions
   ************* ..The nominally unused constructions warning is provided to alert you to potential conditions that can cause
   ************* ..extra time during simulation. Each construction is calculated by the algorithm indicated in the HeatBalanceAlgorithm
   ************* ..object. You may remove the constructions indicated (when you use the DisplayExtraWarnings option).
   *************
   ************* EnergyPlus Warmup Error Summary. During Warmup: 0 Warning; 0 Severe Errors.
   ************* EnergyPlus Sizing Error Summary. During Sizing: 6 Warning; 0 Severe Errors.
   ************* EnergyPlus Completed Successfully-- 18 Warning; 0 Severe Errors; Elapsed Time=00hr 00min  2.36sec
