Program Version,EnergyPlus, Version 22.1.0-ed759b17ee, YMD=2022.05.23 00:39,
   ************* Successfully added path "C:\\Users\\admin\\master\\astrobot\\experiments\\lb_models_simple\\shoebox_ep_airflow" to the sys.path in Python
   ************* Beginning Zone Sizing Calculations
   ** Warning ** Weather file location will be used rather than entered (IDF) Location object.
   **   ~~~   ** ..Location object=SITE 1
   **   ~~~   ** ..Weather File Location=Chicago Ohare Intl Ap IL USA TMY3 WMO#=725300
   **   ~~~   ** ..due to location differences, Latitude difference=[41.98] degrees, Longitude difference=[87.92] degrees.
   **   ~~~   ** ..Time Zone difference=[6.0] hour(s), Elevation difference=[20100.00] percent, [201.00] meters.
   ** Warning ** ProcessScheduleInput: Schedule:Constant="ALWAYS ON DISCRETE", Blank Schedule Type Limits Name input -- will not be validated.
   ** Warning ** ProcessScheduleInput: Schedule:Constant="ALWAYS OFF DISCRETE", Blank Schedule Type Limits Name input -- will not be validated.
   ** Warning ** ProcessScheduleInput: Schedule:Constant="ALWAYS ON CONTINUOUS", Blank Schedule Type Limits Name input -- will not be validated.
   ** Warning ** CheckUsedConstructions: There are 21 nominally unused constructions in input.
   **   ~~~   ** For explicit details on each unused construction, use Output:Diagnostics,DisplayExtraWarnings;
   ** Warning ** Temperature out of range [-100. to 200.] (PsyPsatFnTemp)
   **   ~~~   **  Routine=CalcPurchAirLoads, During Sizing, Environment=BOSTON LOGAN INTL ARPT ANN HUM_N 99.6% CONDNS DP=>MCDB, at Simulation time=01/21 24:00 - 24:10
   **   ~~~   **  Input Temperature=-4738.93
   ** Warning ** ManageSizing: For a plant sizing run, there must be at least 1 Sizing:Plant object input. SimulationControl Plant Sizing option ignored.
   ** Warning ** InitPurchasedAir: In ZoneHVAC:IdealLoadsAirSystem = OFFICESHOEBOX_BDC533DE IDEAL LOADS AIR SYSTEM
   **   ~~~   ** There is outdoor air specified in this object, but the design outdoor air flow rate for this 
   **   ~~~   ** zone is zero. The Maximum Sensible Heating Capacity will be autosized for zero outdoor air flow. 
   **   ~~~   ** Check the outdoor air specifications in the Sizing:Zone object for zone OFFICESHOEBOX_BDC533DE.
   ** Warning ** SizePurchasedAir: In ZoneHVAC:IdealLoadsAirSystem = OFFICESHOEBOX_BDC533DE IDEAL LOADS AIR SYSTEM
   **   ~~~   ** There is outdoor air specified in this object, but the design outdoor air flow rate for this 
   **   ~~~   ** zone is zero. The Maximum Total Cooling Capacity will be autosized for zero outdoor air flow. 
   **   ~~~   ** Check the outdoor air specifications in the Sizing:Zone object for zone OFFICESHOEBOX_BDC533DE.
   ** Warning ** For zone=OFFICESHOEBOX_BDC533DE return air heat gain from lights will be applied to the zone air.
   **   ~~~   **   This zone has no return air or is served by an on/off HVAC system.
   ************* Testing Individual Branch Integrity
   ************* All Branches passed integrity testing
   ************* Testing Individual Supply Air Path Integrity
   ************* All Supply Air Paths passed integrity testing
   ************* Testing Individual Return Air Path Integrity
   ************* All Return Air Paths passed integrity testing
   ************* No node connection errors were found.
   ************* Beginning Simulation
   ** Warning ** The resource referenced by LifeCycleCost:UsePriceEscalation= "U.S. AVG  COMMERCIAL-ELECTRICITY" has no energy cost. 
   **   ~~~   ** ... It is likely that the wrong resource is used. The resource should match the meter used in Utility:Tariff.
   ** Warning ** The resource referenced by LifeCycleCost:UsePriceEscalation= "U.S. AVG  COMMERCIAL-DISTILLATE OIL" has no energy cost. 
   **   ~~~   ** ... It is likely that the wrong resource is used. The resource should match the meter used in Utility:Tariff.
   ** Warning ** The resource referenced by LifeCycleCost:UsePriceEscalation= "U.S. AVG  COMMERCIAL-RESIDUAL OIL" has no energy cost. 
   **   ~~~   ** ... It is likely that the wrong resource is used. The resource should match the meter used in Utility:Tariff.
   ** Warning ** The resource referenced by LifeCycleCost:UsePriceEscalation= "U.S. AVG  COMMERCIAL-NATURAL GAS" has no energy cost. 
   **   ~~~   ** ... It is likely that the wrong resource is used. The resource should match the meter used in Utility:Tariff.
   ** Warning ** The resource referenced by LifeCycleCost:UsePriceEscalation= "U.S. AVG  COMMERCIAL-COAL" has no energy cost. 
   **   ~~~   ** ... It is likely that the wrong resource is used. The resource should match the meter used in Utility:Tariff.
   ************* Simulation Error Summary *************
   ************* There are 4 unused schedules in input.
   ************* There are 4 unused week schedules in input.
   ************* There are 29 unused day schedules in input.
   ************* Use Output:Diagnostics,DisplayUnusedSchedules; to see them.
   *************
   ************* ===== Recurring Error Summary =====
   ************* The following recurring error messages occurred.
   *************
   *************  ** Warning ** Temperature out of range [-100. to 200.] (PsyPsatFnTemp)
   *************  **   ~~~   **   This error occurred 1 total times;
   *************  **   ~~~   **   during Warmup 0 times;
   *************  **   ~~~   **   during Sizing 1 times.
   *************  **   ~~~   **   Max=-4738.932373 C  Min=-4738.932373 C
   *************
   *************
   ************* ===== Final Error Summary =====
   ************* The following error categories occurred.  Consider correcting or noting.
   ************* Nominally Unused Constructions
   ************* ..The nominally unused constructions warning is provided to alert you to potential conditions that can cause
   ************* ..extra time during simulation. Each construction is calculated by the algorithm indicated in the HeatBalanceAlgorithm
   ************* ..object. You may remove the constructions indicated (when you use the DisplayExtraWarnings option).
   *************
   ************* EnergyPlus Warmup Error Summary. During Warmup: 0 Warning; 0 Severe Errors.
   ************* EnergyPlus Sizing Error Summary. During Sizing: 6 Warning; 0 Severe Errors.
   ************* EnergyPlus Completed Successfully-- 15 Warning; 0 Severe Errors; Elapsed Time=00hr 00min  0.38sec
